OPT_V9/start_from_1_gen/powerflow_results_t3.txt
Pandapower Network Debug Info
==================================================

BUS:
       vm_pu  va_degree      p_mw    q_mvar
0   0.993430   0.107771  0.001090  0.001198
1   0.989247   0.166609  0.001207  0.001933
2   0.985333   0.204566  0.002305  0.002511
3   0.990244   0.182640  0.002004  0.003488
4   0.989058   0.201864  0.003293  0.004906
5   0.991079   0.143606  0.004059  0.006538
6   0.989360   0.133092  0.001315  0.000818
7   0.997540   0.039029  0.001590  0.002205
8   0.997820   0.036687  0.002020  0.002792
9   0.999878   0.000536  0.010594  0.010029
10  0.999863   0.000550  0.012759  0.010141
11  0.999852   0.000566  0.013583  0.011132
12  0.999777   0.001572  0.008099  0.006711
13  0.999760   0.001596  0.011182  0.008327
14  0.999748   0.001636  0.013785  0.012168
15  0.999926   0.000425  0.000000  0.000000
16  0.999925   0.000431  0.000000  0.000000
17  0.999782   0.001564  0.000000  0.000000
18  0.999782   0.001574  0.000000  0.000000
19  1.000000   0.000000 -0.043672 -0.045517
20  1.000000   0.000006  0.000000  0.000000
21  1.000000   0.000000 -0.045507 -0.049577
22  1.000000   0.000007  0.000000  0.000000
--------------------------------------------------

LINE:
    p_from_mw  q_from_mvar   p_to_mw  q_to_mvar         pl_mw       ql_mvar  i_from_ka   i_to_ka      i_ka  vm_from_pu  va_from_degree  vm_to_pu  va_to_degree  loading_percent
0    0.043662     0.041517 -0.043658  -0.041514  3.550579e-06  2.768445e-06   0.002319  0.002319  0.002319    1.000000        0.000006  0.999926      0.000425         1.008256
1    0.045497     0.045577 -0.045485  -0.045569  1.115549e-05  8.698119e-06   0.002479  0.002479  0.002479    1.000000        0.000007  0.999782      0.001564         1.077703
2    0.036940     0.031304 -0.036938  -0.031303  1.813225e-06  1.413801e-06   0.001864  0.001864  0.001864    0.999926        0.000425  0.999878      0.000536         0.810358
3    0.008099     0.006711 -0.008099  -0.006711  3.827768e-08  2.984574e-08   0.000405  0.000405  0.000405    0.999782        0.001564  0.999777      0.001572         0.176062
4    0.024968     0.020496 -0.024967  -0.020496  5.708136e-07  4.450727e-07   0.001244  0.001244  0.001244    0.999782        0.001564  0.999760      0.001596         0.540699
5    0.006708     0.009210 -0.006648  -0.009162  6.072855e-05  4.735105e-05   0.016447  0.016447  0.016447    0.999925        0.000431  0.993430      0.107771         7.150802
6    0.005442     0.007409 -0.005376  -0.007358  6.559421e-05  5.114488e-05   0.013272  0.013272  0.013272    0.999782        0.001574  0.991079      0.143606         5.770382
7    0.001595     0.002209 -0.001590  -0.002205  5.016611e-06  3.911535e-06   0.003933  0.003933  0.003933    0.999782        0.001574  0.997540      0.039029         1.710053
8    0.005371     0.007744 -0.005356  -0.007732  1.527853e-05  1.191293e-05   0.013606  0.013606  0.013606    0.999782        0.001574  0.997820      0.036687         5.915713
9   -0.026343    -0.021274  0.026343   0.021274  3.965990e-07  3.092348e-07   0.001303  0.001303  0.001303    0.999863        0.000550  0.999878      0.000536         0.566721
10  -0.013583    -0.011132  0.013583   0.011132  1.508895e-07  1.176510e-07   0.000676  0.000676  0.000676    0.999852        0.000566  0.999863      0.000550         0.293945
11  -0.013785    -0.012168  0.013785   0.012168  1.654331e-07  1.289909e-07   0.000708  0.000708  0.000708    0.999748        0.001636  0.999760      0.001596         0.307785
12  -0.003523    -0.004452  0.003542   0.004468  1.948734e-05  1.519460e-05   0.008284  0.008284  0.008284    0.989247        0.166609  0.993430      0.107771         3.601675
13  -0.002004    -0.003488  0.002015   0.003497  1.101945e-05  8.592049e-06   0.005864  0.005864  0.005864    0.990244        0.182640  0.993430      0.107771         2.549447
14  -0.002305    -0.002511  0.002316   0.002520  1.082698e-05  8.441976e-06   0.004994  0.004994  0.004994    0.985333        0.204566  0.989247      0.166609         2.171093
15   0.003337     0.004940 -0.003293  -0.004906  4.342728e-05  3.386097e-05   0.008623  0.008623  0.008623    0.997820        0.036687  0.989058      0.201864         3.749139
16  -0.001315    -0.000818  0.001317   0.000820  2.133328e-06  1.663391e-06   0.002259  0.002259  0.002259    0.989360        0.133092  0.991079      0.143606         0.982348
--------------------------------------------------

TRAFO:
    p_hv_mw  q_hv_mvar   p_lv_mw  q_lv_mvar    pl_mw  ql_mvar   i_hv_ka   i_lv_ka  vm_hv_pu  va_hv_degree  vm_lv_pu  va_lv_degree  loading_percent
0  0.006718   0.010209 -0.006708  -0.009210  0.00001    0.001  0.000470  0.016447  0.999926      0.000425  0.999925      0.000431         0.122226
1  0.012418   0.018361 -0.012408  -0.017362  0.00001    0.001  0.000853  0.030809  0.999782      0.001564  0.999782      0.001574         0.221714
2  0.043672   0.045517 -0.043662  -0.041517  0.00001    0.004  0.000520  0.002319  1.000000      0.000000  1.000000      0.000006         0.157697
3  0.045507   0.049577 -0.045497  -0.045577  0.00001    0.004  0.000555  0.002479  1.000000      0.000000  1.000000      0.000007         0.168240
--------------------------------------------------
